/*--------------------------------*- C++ -*----------------------------------*\
| =========                 |                                                 |
| \\      /  F ield         | OpenFOAM: The Open Source CFD Toolbox           |
|  \\    /   O peration     | Version:  2.3.0                                 |
|   \\  /    A nd           | Web:      www.OpenFOAM.org                      |
|    \\/     M anipulation  |                                                 |
\*---------------------------------------------------------------------------*/
FoamFile
{
    version     2.0;
    format      ascii;
    class       dictionary;
    location    "constant";
    object      transportProperties;
}
// * * * * * * * * * * * * * * * * * * * * * * * * * * * * * * * * * * * * * //

//define the pressure gradient value

dpdx            dpdx [ 0 1 -2 0 0 0 0 ] ( 1 0 0 );
//Possibly in Scotti Piomelli should use omegaplus value instead of omega
Freq		Freq [ 0 0 0 0 0 0 0 ] 0.157079633;
//Define Alpha for the scaling of cos
alphaPuls	alphaPuls [ 0 0 0 0 0 0 0 ] 2;


//Constants for Temperature
    
// Reference temperature
TRef            TRef [0 0 0 1 0 0 0] 0;
// Laminar Prandtl number
Pr              Pr [0 0 0 0 0 0 0] 0.7;
// Turbulent Prandtl number
Prt             Prt [0 0 0 0 0 0 0] 0.7; 

transportModel  Newtonian;

//nu = 1/Re
nu              nu [ 0 2 -1 0 0 0 0 ] 0.0005;

rho             rho [1 -3 0 0 0 0 0] 1;

CrossPowerLawCoeffs
{
    nu0             nu0 [ 0 2 -1 0 0 0 0 ] 1e-06;
    nuInf           nuInf [ 0 2 -1 0 0 0 0 ] 1e-06;
    m               m [ 0 0 1 0 0 0 0 ] 1;
    n               n [ 0 0 0 0 0 0 0 ] 1;
}

BirdCarreauCoeffs
{
    nu0             nu0 [ 0 2 -1 0 0 0 0 ] 1e-06;
    nuInf           nuInf [ 0 2 -1 0 0 0 0 ] 1e-06;
    k               k [ 0 0 1 0 0 0 0 ] 0;
    n               n [ 0 0 0 0 0 0 0 ] 1;
}


// ************************************************************************* //
