/*--------------------------------*- C++ -*----------------------------------*\
| =========                 |                                                 |
| \\      /  F ield         | OpenFOAM: The Open Source CFD Toolbox           |
|  \\    /   O peration     | Version:  2.3.0                                 |
|   \\  /    A nd           | Web:      www.OpenFOAM.org                      |
|    \\/     M anipulation  |                                                 |
\*---------------------------------------------------------------------------*/
FoamFile
{
    version     2.0;
    format      ascii;
    class       dictionary;
    location    "system";
    object      fvSolution;
}
// * * * * * * * * * * * * * * * * * * * * * * * * * * * * * * * * * * * * * //

solvers
{
    p
    {
        solver           PCG;
	preconditioner	 DIC;
        tolerance        1e-9;
        relTol           0;

        //smoother         DICGaussSeidel;

//        cacheAgglomeration true;
//        nCellsInCoarsestLevel 10;
//        agglomerator     faceAreaPair;
 //       mergeLevels      1;
    }

    pFinal
    {
        $p;
        relTol          0;
    }

    "(U|k|epsilon|T)"
    {
        solver          PBiCG;
        preconditioner  DILU;
        tolerance       1e-09;
        relTol          0;
    }

    "(U|k|epsilon|T)Final"
    {
        $U;
        relTol          0;
    }
}

PIMPLE
{
    nNonOrthogonalCorrectors 0;
    nCorrectors         2;
    pRefCell 0;
    pRefValue 0;
}


// ************************************************************************* //
