/*--------------------------------*- C++ -*----------------------------------*\
| =========                 |                                                 |
| \\      /  F ield         | OpenFOAM: The Open Source CFD Toolbox           |
|  \\    /   O peration     | Version:  2.3.0                                 |
|   \\  /    A nd           | Web:      www.OpenFOAM.org                      |
|    \\/     M anipulation  |                                                 |
\*---------------------------------------------------------------------------*/
FoamFile
{
    version     2.0;
    format      ascii;
    class       dictionary;
    object      blockMeshDict;
}
// * * * * * * * * * * * * * * * * * * * * * * * * * * * * * * * * * * * * * //

convertToMeters 1;

vertices
(
    (0 0 0)
    (10 0 0)
    (0 1 0)
    (10 1 0)
    (0 2 0)
    (10 2 0)
    (0 0 .1)
    (10 0 .1)
    (0 1 .1)
    (10 1 .1)
    (0 2 .1)
    (10 2 .1)
);

blocks
(
    hex (0 1 3 2 6 7 9 8) (40 25 1) simpleGrading (1 10.7028 1)
    hex (2 3 5 4 8 9 11 10) (40 25 1) simpleGrading (1 0.0934 1)
);

edges
(
);

boundary
(
    bottomWall
    {
        type            wall;
        faces           ((0 1 7 6));
    }
    topWall
    {
        type            wall;
        faces           ((4 10 11 5));
    }

    frontAndBack
    {
        type            empty;
        faces           ((0 2 3 1)
			 (6 7 9 8)
			 (2 4 5 3)
			 (8 9 11 10));
    }
    inout1_half0
    {
        type            cyclic;
        neighbourPatch  inout1_half1;
        faces           ((1 3 9 7));
    }
    inout1_half1
    {
        type            cyclic;
        neighbourPatch  inout1_half0;
        faces           ((0 6 8 2));
    }

    inout2_half0
    {
        type            cyclic;
        neighbourPatch  inout2_half1;
        faces           ((3 5 11 9));
    }
    inout2_half1
    {
        type            cyclic;
        neighbourPatch  inout2_half0;
        faces           ((2 8 10 4));
    }
);

mergePatchPairs
(
);

// ************************************************************************* //
